Version 4
SHEET 1 880 1060
WIRE -704 256 -800 256
WIRE -688 256 -704 256
WIRE -1200 288 -1296 288
WIRE -944 288 -1200 288
WIRE -688 336 -688 256
WIRE -688 336 -800 336
WIRE -688 400 -688 336
WIRE -1136 432 -1152 432
WIRE -1104 432 -1136 432
WIRE -1008 432 -1024 432
WIRE -848 448 -864 448
WIRE -736 448 -784 448
WIRE -1296 528 -1296 288
WIRE -1232 528 -1296 528
WIRE -1136 528 -1136 432
WIRE -1136 528 -1152 528
WIRE -1104 528 -1136 528
WIRE -1008 544 -1008 432
WIRE -1008 544 -1040 544
WIRE -976 544 -1008 544
WIRE -880 544 -896 544
WIRE -864 544 -864 448
WIRE -864 544 -880 544
WIRE -848 544 -864 544
WIRE -736 560 -736 448
WIRE -736 560 -784 560
WIRE -688 560 -688 464
WIRE -688 560 -736 560
WIRE -880 672 -880 544
WIRE -880 672 -1008 672
WIRE -928 752 -960 752
WIRE -896 752 -928 752
WIRE -784 768 -832 768
WIRE -688 768 -688 560
WIRE -688 768 -704 768
WIRE -1008 800 -1008 768
WIRE -928 848 -928 752
WIRE -912 848 -928 848
WIRE -832 848 -832 768
FLAG -800 368 0
FLAG -800 288 0
FLAG -1408 944 0
FLAG -1408 784 0
FLAG -1408 656 0
FLAG -880 240 +
FLAG -816 528 +
FLAG -1408 576 +
FLAG -880 384 -
FLAG -816 592 -
FLAG -1408 864 Bias
FLAG -1408 704 -
FLAG -864 720 +
FLAG -864 784 -
FLAG -704 256 OUT
FLAG -944 336 0
FLAG -1072 512 +
FLAG -1072 576 -
FLAG -1232 432 Bias
FLAG -1104 560 0
FLAG -1200 288 V_sq
FLAG -848 576 0
FLAG -1408 528 0
FLAG -1408 448 ref
FLAG -832 736 ctrl
FLAG -1008 800 ref
FLAG -1408 384 0
FLAG -1408 304 ctrl
SYMBOL Opamps\\LT1630 -816 496 R0
SYMATTR InstName U1
SYMBOL ad633 -880 304 M0
SYMATTR InstName X1
SYMATTR SpiceLine ad633
SYMBOL voltage -1408 560 R0
SYMATTR InstName V1
SYMATTR Value 15
SYMBOL voltage -1408 688 R0
SYMATTR InstName V2
SYMATTR Value -15
SYMBOL voltage -1408 848 R0
WINDOW 123 0 0 Left 2
WINDOW 39 0 0 Left 2
SYMATTR InstName V3
SYMATTR Value PULSE(-1 1 0.1 0.5 0.5 0 1.2)
SYMBOL Opamps\\LT1630 -864 688 M0
SYMATTR InstName U4
SYMBOL res -816 832 R90
WINDOW 0 0 56 VBottom 2
WINDOW 3 32 56 VTop 2
SYMATTR InstName R6
SYMATTR Value 10k
SYMBOL res -688 752 R90
WINDOW 0 0 56 VBottom 2
WINDOW 3 32 56 VTop 2
SYMATTR InstName R7
SYMATTR Value 1k
SYMBOL nmos -960 672 M0
SYMATTR InstName M1
SYMATTR Value 2N7002
SYMBOL Opamps\\LT1630 -1072 480 R0
SYMATTR InstName U2
SYMBOL res -1120 448 R270
WINDOW 0 32 56 VTop 2
WINDOW 3 0 56 VBottom 2
SYMATTR InstName R2
SYMATTR Value 10k
SYMBOL res -1248 544 R270
WINDOW 0 32 56 VTop 2
WINDOW 3 0 56 VBottom 2
SYMATTR InstName R3
SYMATTR Value 1k
SYMBOL res -1248 448 R270
WINDOW 0 32 56 VTop 2
WINDOW 3 0 56 VBottom 2
SYMATTR InstName R4
SYMATTR Value 10k
SYMBOL res -880 528 R90
WINDOW 0 0 56 VBottom 2
WINDOW 3 32 56 VTop 2
SYMATTR InstName R5
SYMATTR Value 10k
SYMBOL cap -784 432 R90
WINDOW 0 0 32 VBottom 2
WINDOW 3 32 32 VTop 2
SYMATTR InstName C2
SYMATTR Value 1µ
SYMBOL voltage -1408 432 R0
SYMATTR InstName V4
SYMATTR Value 0.1
SYMBOL voltage -1408 288 R0
SYMATTR InstName V5
SYMATTR Value 0.5
SYMBOL cap -704 400 R0
SYMATTR InstName C1
SYMATTR Value 10µ
TEXT -1272 848 Left 2 !.tran 1.5 startup
